* PEX produced on Sun Apr 23 11:24:37 AM CEST 2023 using /foss/tools/iic-osic/iic-pex.sh with m=1 and s=1
* NGSPICE file created from hpretl_tt03_temperature_sensor_golden.ext - technology: sky130A

.subckt hpretl_tt03_temperature_sensor io_in[1] io_in[2] io_in[3] io_in[4]
+ io_in[5] io_in[6] io_in[7] io_out[0] io_out[1] io_out[2] io_out[3] io_out[4] io_out[5]
+ io_out[6] io_out[7] io_in[0] vccd1 vssd1
X0 a_18041_32143# a_17507_32149# a_17946_32143# vccd1 sky130_fd_pr__pfet_01v8_hvt ad=0.07665 pd=0.785 as=0.06825 ps=0.745 w=0.42 l=0.15
X1 a_11960_29967# a_11711_29967# vccd1 vccd1 sky130_fd_pr__pfet_01v8_hvt ad=0.1825 pd=1.365 as=0.32075 ps=1.685 w=1 l=0.15
X2 vccd1 a_23903_26922# _1342_.B vccd1 sky130_fd_pr__pfet_01v8_hvt ad=0.11455 pd=1.08 as=0.2054 ps=2.1 w=0.79 l=0.15
X3 a_27859_29098# _1451_.X vccd1 vccd1 sky130_fd_pr__pfet_01v8_hvt ad=0.2054 pd=2.1 as=0.11455 ps=1.08 w=0.79 l=0.15
X4 vssd1 a_21051_24746# _1887_.D vssd1 sky130_fd_pr__nfet_01v8 ad=0.0754 pd=0.81 as=0.1352 ps=1.56 w=0.52 l=0.15
X5 a_14223_1679# a_13441_1685# a_14139_1679# vccd1 sky130_fd_pr__pfet_01v8_hvt ad=0.0882 pd=0.84 as=0.0567 ps=0.69 w=0.42 l=0.15
X6 vssd1 a_28015_5755# a_27973_5487# vssd1 sky130_fd_pr__nfet_01v8 ad=0.1092 pd=1.36 as=0.066 ps=0.745 w=0.42 l=0.15
X7 _1234_.A1 a_2807_3579# vssd1 vssd1 sky130_fd_pr__nfet_01v8 ad=0.08775 pd=0.92 as=0.08775 ps=0.92 w=0.65 l=0.15
X8 a_19973_32149# a_19807_32149# vssd1 vssd1 sky130_fd_pr__nfet_01v8 ad=0.1092 pd=1.36 as=0.0567 ps=0.69 w=0.42 l=0.15
X9 vccd1 a_25455_27613# a_25623_27515# vccd1 sky130_fd_pr__pfet_01v8_hvt ad=0.135 pd=1.27 as=0.27 ps=2.54 w=1 l=0.15
X10 vccd1 a_24087_20394# _1525_.X vccd1 sky130_fd_pr__pfet_01v8_hvt ad=0.11455 pd=1.08 as=0.2054 ps=2.1 w=0.79 l=0.15
X13 a_13311_25615# a_12447_25621# a_13054_25589# vccd1 sky130_fd_pr__pfet_01v8_hvt ad=0.0567 pd=0.69 as=0.1095 ps=1.075 w=0.42 l=0.15
X15 a_9037_9661# a_8767_9295# a_8947_9295# vssd1 sky130_fd_pr__nfet_01v8 ad=0.0504 pd=0.66 as=0.1092 ps=1.36 w=0.42 l=0.15
X17 a_6186_21041# _1327_.A1_N vccd1 vccd1 sky130_fd_pr__pfet_01v8_hvt ad=0.129 pd=1.18 as=0.14575 ps=1.335 w=0.42 l=0.15
X18 a_27379_24349# a_26597_23983# a_27295_24349# vccd1 sky130_fd_pr__pfet_01v8_hvt ad=0.0882 pd=0.84 as=0.0567 ps=0.69 w=0.42 l=0.15
X20 vccd1 _1860_.CLK a_9595_29423# vccd1 sky130_fd_pr__pfet_01v8_hvt ad=0.0864 pd=0.91 as=0.1664 ps=1.8 w=0.64 l=0.15
X21 vccd1 _1899_.Q a_11558_20969# vccd1 sky130_fd_pr__pfet_01v8_hvt ad=0.14575 pd=1.335 as=0.0441 ps=0.63 w=0.42 l=0.15
X22 vccd1 _1448_.A a_12815_19631# vccd1 sky130_fd_pr__pfet_01v8_hvt ad=0.149 pd=1.325 as=0.1664 ps=1.8 w=0.64 l=0.15
X23 a_18427_15279# _1723_.B vccd1 vccd1 sky130_fd_pr__pfet_01v8_hvt ad=0.06615 pd=0.735 as=0.0567 ps=0.69 w=0.42 l=0.15
X24 vssd1 a_18475_30676# _1842_.D vssd1 sky130_fd_pr__nfet_01v8 ad=0.0754 pd=0.81 as=0.1352 ps=1.56 w=0.52 l=0.15
X25 _1840_.Q a_17527_26427# vssd1 vssd1 sky130_fd_pr__nfet_01v8 ad=0.169 pd=1.82 as=0.08775 ps=0.92 w=0.65 l=0.15
X26 _0952_.A2 a_26267_13621# vccd1 vccd1 sky130_fd_pr__pfet_01v8_hvt ad=0.26 pd=2.52 as=0.135 ps=1.27 w=1 l=0.15
X28 a_1683_27791# _1767_.B _1767_.Y vccd1 sky130_fd_pr__pfet_01v8_hvt ad=0.26 pd=2.52 as=0.135 ps=1.27 w=1 l=0.15
X29 vccd1 _1696_.B a_23115_19087# vccd1 sky130_fd_pr__pfet_01v8_hvt ad=0.2279 pd=1.74 as=0.0609 ps=0.71 w=0.42 l=0.15
X31 a_17826_5263# _1150_.A2 a_17736_5263# vssd1 sky130_fd_pr__nfet_01v8 ad=0.14625 pd=1.1 as=0.0975 ps=0.95 w=0.65 l=0.15
X32 a_24278_21237# a_24110_21263# vssd1 vssd1 sky130_fd_pr__nfet_01v8 ad=0.0989 pd=0.995 as=0.12095 ps=1.085 w=0.64 l=0.15
X33 a_24087_20394# _1525_.A vccd1 vccd1 sky130_fd_pr__pfet_01v8_hvt ad=0.2054 pd=2.1 as=0.11455 ps=1.08 w=0.79 l=0.15
X34 _1191_.X a_19899_13647# vccd1 vccd1 sky130_fd_pr__pfet_01v8_hvt ad=0.26 pd=2.52 as=0.1575 ps=1.315 w=1 l=0.15
X35 a_17385_21807# _1893_.Q a_17313_21807# vssd1 sky130_fd_pr__nfet_01v8 ad=0.0441 pd=0.63 as=0.0441 ps=0.63 w=0.42 l=0.15
X36 a_18459_13131# _1110_.A vccd1 vccd1 sky130_fd_pr__pfet_01v8_hvt ad=0.0567 pd=0.69 as=0.1176 ps=1.4 w=0.42 l=0.15
X37 _1424_.A_N a_11711_15831# vssd1 vssd1 sky130_fd_pr__nfet_01v8 ad=0.08775 pd=0.92 as=0.097 ps=0.975 w=0.65 l=0.15
X38 vccd1 a_17895_29941# a_17811_29967# vccd1 sky130_fd_pr__pfet_01v8_hvt ad=0.1113 pd=1.37 as=0.0882 ps=0.84 w=0.42 l=0.15
X39 _0952_.A2 a_26267_13621# vssd1 vssd1 sky130_fd_pr__nfet_01v8 ad=0.169 pd=1.82 as=0.08775 ps=0.92 w=0.65 l=0.15
X41 vccd1 _1344_.B a_5271_27247# vccd1 sky130_fd_pr__pfet_01v8_hvt ad=0.32075 pd=1.685 as=0.1092 ps=1.36 w=0.42 l=0.15
X43 vccd1 a_25842_24501# a_25769_24527# vccd1 sky130_fd_pr__pfet_01v8_hvt ad=0.178875 pd=1.26 as=0.07665 ps=0.785 w=0.42 l=0.15
X44 vccd1 _1075_.C a_18243_13760# vccd1 sky130_fd_pr__pfet_01v8_hvt ad=0.142225 pd=1.335 as=0.06615 ps=0.735 w=0.42 l=0.15
X45 temp1.dcdc.A a_5354_28335# vssd1 vssd1 sky130_fd_pr__nfet_01v8 ad=0.0588 pd=0.7 as=0.0588 ps=0.7 w=0.42 l=0.15
X46 vccd1 _0930_.A a_1673_20175# vccd1 sky130_fd_pr__pfet_01v8_hvt ad=0.26 pd=2.52 as=0.105 ps=1.21 w=1 l=0.15
X47 a_17217_1679# _1624_.X vccd1 vccd1 sky130_fd_pr__pfet_01v8_hvt ad=0.05775 pd=0.695 as=0.1092 ps=1.36 w=0.42 l=0.15
X48 vccd1 a_2594_31055# clkbuf_0_net57.X vccd1 sky130_fd_pr__pfet_01v8_hvt ad=0.14 pd=1.28 as=0.14 ps=1.28 w=1 l=0.15
X49 vccd1 _0918_.A a_10593_24233# vccd1 sky130_fd_pr__pfet_01v8_hvt ad=0.26 pd=2.52 as=0.135 ps=1.27 w=1 l=0.15
X50 vssd1 _0974_.B1 a_18940_12533# vssd1 sky130_fd_pr__nfet_01v8 ad=0.208 pd=1.94 as=0.10725 ps=0.98 w=0.65 l=0.15
X51 a_16531_24349# a_15667_23983# a_16274_24095# vccd1 sky130_fd_pr__pfet_01v8_hvt ad=0.0567 pd=0.69 as=0.1095 ps=1.075 w=0.42 l=0.15
X52 a_11269_16600# _1762_.A vccd1 vccd1 sky130_fd_pr__pfet_01v8_hvt ad=0.1092 pd=1.36 as=0.0924 ps=0.86 w=0.42 l=0.15
X53 vccd1 a_14103_10383# _1110_.A vccd1 sky130_fd_pr__pfet_01v8_hvt ad=0.26 pd=2.52 as=0.135 ps=1.27 w=1 l=0.15
X54 a_26352_4399# a_25953_4399# a_26226_4765# vssd1 sky130_fd_pr__nfet_01v8 ad=0.0696 pd=0.765 as=0.0621 ps=0.705 w=0.36 l=0.15
X56 vssd1 _1126_.Y a_4447_6581# vssd1 sky130_fd_pr__nfet_01v8 ad=0.10025 pd=0.985 as=0.0567 ps=0.69 w=0.42 l=0.15
X57 vccd1 a_2594_31055# clkbuf_0_net57.X vccd1 sky130_fd_pr__pfet_01v8_hvt ad=0.265 pd=2.53 as=0.14 ps=1.28 w=1 l=0.15
X58 vccd1 a_2471_22869# _1771_.B vccd1 sky130_fd_pr__pfet_01v8_hvt ad=0.1778 pd=1.415 as=0.135 ps=1.27 w=1 l=0.15
X59 vssd1 a_20039_5162# _1929_.D vssd1 sky130_fd_pr__nfet_01v8 ad=0.0754 pd=0.81 as=0.1352 ps=1.56 w=0.52 l=0.15
X61 vccd1 a_7479_24527# _1242_.B1 vccd1 sky130_fd_pr__pfet_01v8_hvt ad=0.14 pd=1.28 as=0.14 ps=1.28 w=1 l=0.15
X63 a_2932_18517# _1325_.B1 vssd1 vssd1 sky130_fd_pr__nfet_01v8 ad=0.17225 pd=1.83 as=0.10075 ps=0.96 w=0.65 l=0.15
X64 vccd1 a_15750_28335# temp1.capload\[6\].cap.B vccd1 sky130_fd_pr__pfet_01v8_hvt ad=0.265 pd=2.53 as=0.14 ps=1.28 w=1 l=0.15
X65 vccd1 _1301_.A1 a_2778_15529# vccd1 sky130_fd_pr__pfet_01v8_hvt ad=0.1575 pd=1.315 as=0.14 ps=1.28 w=1 l=0.15
X67 vssd1 _1226_.A2 a_4253_10927# vssd1 sky130_fd_pr__nfet_01v8 ad=0.08775 pd=0.92 as=0.10075 ps=0.96 w=0.65 l=0.15
X68 vssd1 _1877_.Q a_21089_18365# vssd1 sky130_fd_pr__nfet_01v8 ad=0.1013 pd=0.99 as=0.0504 ps=0.66 w=0.42 l=0.15
X69 a_6682_24233# _0911_.A a_6600_24233# vccd1 sky130_fd_pr__pfet_01v8_hvt ad=0.0441 pd=0.63 as=0.1092 ps=1.36 w=0.42 l=0.15
X70 vssd1 temp1.dac.parallel_cells\[3\].vdac_batch.einvp_batch\[7\].vref.TE a_8215_32143# vssd1 sky130_fd_pr__nfet_01v8 ad=0.097 pd=0.975 as=0.1092 ps=1.36 w=0.42 l=0.15
X71 vssd1 a_15243_3855# a_15411_3829# vssd1 sky130_fd_pr__nfet_01v8 ad=0.08775 pd=0.92 as=0.169 ps=1.82 w=0.65 l=0.15
X72 a_26777_7663# a_25787_7663# a_26651_8029# vssd1 sky130_fd_pr__nfet_01v8 ad=0.066 pd=0.745 as=0.0684 ps=0.74 w=0.36 l=0.15
X73 vssd1 _1761_.X a_3514_25615# vssd1 sky130_fd_pr__nfet_01v8 ad=0.0588 pd=0.7 as=0.0588 ps=0.7 w=0.42 l=0.15
X74 a_25214_3855# a_24775_3861# a_25129_3855# vssd1 sky130_fd_pr__nfet_01v8 ad=0.0621 pd=0.705 as=0.0813 ps=0.83 w=0.36 l=0.15
X76 vccd1 _0987_.Y a_11877_6031# vccd1 sky130_fd_pr__pfet_01v8_hvt ad=0.1575 pd=1.315 as=0.165 ps=1.33 w=1 l=0.15
X77 vccd1 a_19954_31029# a_19881_31055# vccd1 sky130_fd_pr__pfet_01v8_hvt ad=0.178875 pd=1.26 as=0.07665 ps=0.785 w=0.42 l=0.15
X78 vssd1 _0906_.X a_7479_24527# vssd1 sky130_fd_pr__nfet_01v8 ad=0.07035 pd=0.755 as=0.1113 ps=1.37 w=0.42 l=0.15
X79 a_16083_14954# _1401_.A vccd1 vccd1 sky130_fd_pr__pfet_01v8_hvt ad=0.2054 pd=2.1 as=0.11455 ps=1.08 w=0.79 l=0.15
X80 vccd1 temp1.capload\[5\].cap.A temp1.capload\[5\].cap.Y vccd1 sky130_fd_pr__pfet_01v8_hvt ad=0.26 pd=2.52 as=0.135 ps=1.27 w=1 l=0.15
X81 a_11023_5162# _1646_.X vccd1 vccd1 sky130_fd_pr__pfet_01v8_hvt ad=0.2054 pd=2.1 as=0.11455 ps=1.08 w=0.79 l=0.15
X82 vccd1 a_25566_21919# a_25493_22173# vccd1 sky130_fd_pr__pfet_01v8_hvt ad=0.178875 pd=1.26 as=0.07665 ps=0.785 w=0.42 l=0.15
X83 vccd1 _1102_.B a_19619_6941# vccd1 sky130_fd_pr__pfet_01v8_hvt ad=0.2279 pd=1.74 as=0.0609 ps=0.71 w=0.42 l=0.15
X84 a_21235_7338# _1597_.A vccd1 vccd1 sky130_fd_pr__pfet_01v8_hvt ad=0.2054 pd=2.1 as=0.11455 ps=1.08 w=0.79 l=0.15
X85 a_27337_3311# _1674_.X vssd1 vssd1 sky130_fd_pr__nfet_01v8 ad=0.0813 pd=0.83 as=0.1092 ps=1.36 w=0.42 l=0.15
X87 vssd1 a_9000_14967# _1298_.A1 vssd1 sky130_fd_pr__nfet_01v8 ad=0.11285 pd=1.045 as=0.169 ps=1.82 w=0.65 l=0.15
X88 vccd1 _1140_.C a_11711_5487# vccd1 sky130_fd_pr__pfet_01v8_hvt ad=0.142225 pd=1.335 as=0.06615 ps=0.735 w=0.42 l=0.15
X91 a_23098_27613# a_22659_27247# a_23013_27247# vssd1 sky130_fd_pr__nfet_01v8 ad=0.0621 pd=0.705 as=0.0813 ps=0.83 w=0.36 l=0.15
X92 a_2626_12879# _1222_.B1 a_2331_12879# vssd1 sky130_fd_pr__nfet_01v8 ad=0.11375 pd=1 as=0.143 ps=1.09 w=0.65 l=0.15
X94 a_7101_3561# _1317_.X _1800_.A2 vccd1 sky130_fd_pr__pfet_01v8_hvt ad=0.105 pd=1.21 as=0.26 ps=2.52 w=1 l=0.15
X97 a_19693_18377# a_18703_18005# a_19567_17999# vssd1 sky130_fd_pr__nfet_01v8 ad=0.066 pd=0.745 as=0.0684 ps=0.74 w=0.36 l=0.15
X99 a_4324_31849# a_4075_31599# vccd1 vccd1 sky130_fd_pr__pfet_01v8_hvt ad=0.1825 pd=1.365 as=0.32075 ps=1.685 w=1 l=0.15
X100 a_21633_26159# _1838_.D vssd1 vssd1 sky130_fd_pr__nfet_01v8 ad=0.0813 pd=0.83 as=0.1092 ps=1.36 w=0.42 l=0.15
X101 a_4697_7497# a_3707_7125# a_4571_7119# vssd1 sky130_fd_pr__nfet_01v8 ad=0.066 pd=0.745 as=0.0684 ps=0.74 w=0.36 l=0.15
X102 a_21108_7663# a_20709_7663# a_20982_8029# vssd1 sky130_fd_pr__nfet_01v8 ad=0.0696 pd=0.765 as=0.0621 ps=0.705 w=0.36 l=0.15
X103 vccd1 a_3635_24501# _2006_.Q vccd1 sky130_fd_pr__pfet_01v8_hvt ad=0.26 pd=2.52 as=0.135 ps=1.27 w=1 l=0.15
X104 a_7667_22901# _0921_.B vssd1 vssd1 sky130_fd_pr__nfet_01v8 ad=0.0567 pd=0.69 as=0.0567 ps=0.69 w=0.42 l=0.15
X105 vssd1 _1304_.B _1300_.B1 vssd1 sky130_fd_pr__nfet_01v8 ad=0.169 pd=1.82 as=0.08775 ps=0.92 w=0.65 l=0.15
X106 a_23837_21269# a_23671_21269# vccd1 vccd1 sky130_fd_pr__pfet_01v8_hvt ad=0.1664 pd=1.8 as=0.0864 ps=0.91 w=0.64 l=0.15
X108 vccd1 _1298_.A1 a_1769_15823# vccd1 sky130_fd_pr__pfet_01v8_hvt ad=0.1475 pd=1.295 as=0.14 ps=1.28 w=1 l=0.15
X109 a_5081_19087# _1325_.B1 vccd1 vccd1 sky130_fd_pr__pfet_01v8_hvt ad=0.265 pd=2.53 as=0.1475 ps=1.295 w=1 l=0.15
X110 vssd1 a_3635_24501# _2006_.Q vssd1 sky130_fd_pr__nfet_01v8 ad=0.169 pd=1.82 as=0.08775 ps=0.92 w=0.65 l=0.15
X112 _1760_.X a_2309_29789# vccd1 vccd1 sky130_fd_pr__pfet_01v8_hvt ad=0.1525 pd=1.305 as=0.14325 ps=1.33 w=1 l=0.15
X113 vccd1 a_22806_20149# a_22733_20175# vccd1 sky130_fd_pr__pfet_01v8_hvt ad=0.178875 pd=1.26 as=0.07665 ps=0.785 w=0.42 l=0.15
X114 vccd1 a_2962_14735# clkbuf_1_1__f_io_in[0].A vccd1 sky130_fd_pr__pfet_01v8_hvt ad=0.14 pd=1.28 as=0.14 ps=1.28 w=1 l=0.15
X116 vccd1 _1841_.CLK a_14931_32149# vccd1 sky130_fd_pr__pfet_01v8_hvt ad=0.0864 pd=0.91 as=0.1664 ps=1.8 w=0.64 l=0.15
X117 vssd1 a_17895_29941# a_17853_30345# vssd1 sky130_fd_pr__nfet_01v8 ad=0.1092 pd=1.36 as=0.066 ps=0.745 w=0.42 l=0.15
X118 vccd1 temp1.dac.vdac_single.einvp_batch\[0\].vref_55.LO a_17139_27247# vccd1 sky130_fd_pr__pfet_01v8_hvt ad=0.32075 pd=1.685 as=0.1092 ps=1.36 w=0.42 l=0.15
X119 vssd1 a_10167_7093# a_10125_7497# vssd1 sky130_fd_pr__nfet_01v8 ad=0.1092 pd=1.36 as=0.066 ps=0.745 w=0.42 l=0.15
X122 a_23266_11039# a_23098_11293# vssd1 vssd1 sky130_fd_pr__nfet_01v8 ad=0.0989 pd=0.995 as=0.12095 ps=1.085 w=0.64 l=0.15
X123 a_2658_24095# a_2490_24349# vssd1 vssd1 sky130_fd_pr__nfet_01v8 ad=0.0989 pd=0.995 as=0.12095 ps=1.085 w=0.64 l=0.15
X124 _1762_.A a_7755_21263# vccd1 vccd1 sky130_fd_pr__pfet_01v8_hvt ad=0.14 pd=1.28 as=0.14 ps=1.28 w=1 l=0.15
X125 a_6553_17705# _1325_.A2 vccd1 vccd1 sky130_fd_pr__pfet_01v8_hvt ad=0.265 pd=2.53 as=0.1475 ps=1.295 w=1 l=0.15
X126 vccd1 a_2962_14735# clkbuf_1_1__f_io_in[0].A vccd1 sky130_fd_pr__pfet_01v8_hvt ad=0.14 pd=1.28 as=0.14 ps=1.28 w=1 l=0.15
X127 vssd1 _1139_.C a_11865_15101# vssd1 sky130_fd_pr__nfet_01v8 ad=0.13165 pd=1.14 as=0.0441 ps=0.63 w=0.42 l=0.15
X128 _1029_.B1 a_14747_12015# vccd1 vccd1 sky130_fd_pr__pfet_01v8_hvt ad=0.26 pd=2.52 as=0.142225 ps=1.335 w=1 l=0.15
X129 a_14467_28879# a_14287_28879# vccd1 vccd1 sky130_fd_pr__pfet_01v8_hvt ad=0.0609 pd=0.71 as=0.0714 ps=0.76 w=0.42 l=0.15
X130 a_22454_1501# a_22181_1135# a_22369_1135# vccd1 sky130_fd_pr__pfet_01v8_hvt ad=0.06825 pd=0.745 as=0.05775 ps=0.695 w=0.42 l=0.15
X131 a_15189_29423# a_15023_29423# vssd1 vssd1 sky130_fd_pr__nfet_01v8 ad=0.1092 pd=1.36 as=0.0567 ps=0.69 w=0.42 l=0.15
X132 a_17853_2057# a_16863_1685# a_17727_1679# vssd1 sky130_fd_pr__nfet_01v8 ad=0.066 pd=0.745 as=0.0684 ps=0.74 w=0.36 l=0.15
X133 vccd1 a_12502_4917# a_12429_4943# vccd1 sky130_fd_pr__pfet_01v8_hvt ad=0.178875 pd=1.26 as=0.07665 ps=0.785 w=0.42 l=0.15
X134 _1547_.A a_11476_20969# vssd1 vssd1 sky130_fd_pr__nfet_01v8 ad=0.169 pd=1.82 as=0.10025 ps=0.985 w=0.65 l=0.15
X135 a_26225_6409# a_25235_6037# a_26099_6031# vssd1 sky130_fd_pr__nfet_01v8 ad=0.066 pd=0.745 as=0.0684 ps=0.74 w=0.36 l=0.15
X136 a_26183_13647# a_25401_13653# a_26099_13647# vccd1 sky130_fd_pr__pfet_01v8_hvt ad=0.0882 pd=0.84 as=0.0567 ps=0.69 w=0.42 l=0.15
X137 a_9460_25847# _1332_.Y a_9602_25654# vccd1 sky130_fd_pr__pfet_01v8_hvt ad=0.1932 pd=1.34 as=0.07665 ps=0.785 w=0.42 l=0.15
X138 vccd1 a_4519_9991# _1172_.X vccd1 sky130_fd_pr__pfet_01v8_hvt ad=0.195 pd=1.39 as=0.36 ps=2.72 w=1 l=0.15
X139 vssd1 _1179_.C1 a_18519_16911# vssd1 sky130_fd_pr__nfet_01v8 ad=0.10725 pd=0.98 as=0.169 ps=1.82 w=0.65 l=0.15
X140 a_10034_2589# a_9761_2223# a_9949_2223# vccd1 sky130_fd_pr__pfet_01v8_hvt ad=0.06825 pd=0.745 as=0.05775 ps=0.695 w=0.42 l=0.15
X141 a_25030_9117# a_24757_8751# a_24945_8751# vccd1 sky130_fd_pr__pfet_01v8_hvt ad=0.06825 pd=0.745 as=0.05775 ps=0.695 w=0.42 l=0.15
X142 a_23155_18909# a_22291_18543# a_22898_18655# vccd1 sky130_fd_pr__pfet_01v8_hvt ad=0.0567 pd=0.69 as=0.1095 ps=1.075 w=0.42 l=0.15
R0 temp1.capload\[10\].cap.A vssd1 sky130_fd_pr__res_generic_po w=0.48 l=0.045
X143 a_20617_27791# a_20083_27797# a_20522_27791# vccd1 sky130_fd_pr__pfet_01v8_hvt ad=0.07665 pd=0.785 as=0.06825 ps=0.745 w=0.42 l=0.15
X145 a_22963_1679# a_22181_1685# a_22879_1679# vccd1 sky130_fd_pr__pfet_01v8_hvt ad=0.0882 pd=0.84 as=0.0567 ps=0.69 w=0.42 l=0.15
X147 vccd1 a_4497_7637# _1170_.B2 vccd1 sky130_fd_pr__pfet_01v8_hvt ad=0.26 pd=2.52 as=0.26 ps=2.52 w=1 l=0.15
X148 a_3983_28585# _1764_.A vccd1 vccd1 sky130_fd_pr__pfet_01v8_hvt ad=0.135 pd=1.27 as=0.135 ps=1.27 w=1 l=0.15
X149 a_13932_21641# a_13533_21269# a_13806_21263# vssd1 sky130_fd_pr__nfet_01v8 ad=0.0696 pd=0.765 as=0.0621 ps=0.705 w=0.36 l=0.15
X150 vccd1 _1999_.CLK a_13275_1685# vccd1 sky130_fd_pr__pfet_01v8_hvt ad=0.0864 pd=0.91 as=0.1664 ps=1.8 w=0.64 l=0.15
X151 vssd1 _1184_.A2 a_19325_20495# vssd1 sky130_fd_pr__nfet_01v8 ad=0.102375 pd=0.965 as=0.10725 ps=0.98 w=0.65 l=0.15
X152 a_22238_14735# _1032_.C vccd1 vccd1 sky130_fd_pr__pfet_01v8_hvt ad=0.165 pd=1.33 as=0.2425 ps=1.485 w=1 l=0.15
X153 a_19605_5487# a_19439_5487# vccd1 vccd1 sky130_fd_pr__pfet_01v8_hvt ad=0.1664 pd=1.8 as=0.0864 ps=0.91 w=0.64 l=0.15
X154 vccd1 _1010_.A a_19439_7663# vccd1 sky130_fd_pr__pfet_01v8_hvt ad=0.0567 pd=0.69 as=0.1092 ps=1.36 w=0.42 l=0.15
X155 vccd1 a_18114_32117# a_18041_32143# vccd1 sky130_fd_pr__pfet_01v8_hvt ad=0.178875 pd=1.26 as=0.07665 ps=0.785 w=0.42 l=0.15
X157 a_21089_18365# a_20819_17999# a_20999_17999# vssd1 sky130_fd_pr__nfet_01v8 ad=0.0504 pd=0.66 as=0.1092 ps=1.36 w=0.42 l=0.15
X158 vccd1 _1850_.CLK a_8307_5487# vccd1 sky130_fd_pr__pfet_01v8_hvt ad=0.1625 pd=1.325 as=0.265 ps=2.53 w=1 l=0.15
X159 vssd1 a_21115_11445# a_21073_11849# vssd1 sky130_fd_pr__nfet_01v8 ad=0.1092 pd=1.36 as=0.066 ps=0.745 w=0.42 l=0.15
X160 vccd1 a_3083_24251# a_2999_24349# vccd1 sky130_fd_pr__pfet_01v8_hvt ad=0.1113 pd=1.37 as=0.0882 ps=0.84 w=0.42 l=0.15
X161 vccd1 a_25283_14356# _1707_.X vccd1 sky130_fd_pr__pfet_01v8_hvt ad=0.11455 pd=1.08 as=0.2054 ps=2.1 w=0.79 l=0.15
X162 _1150_.B2 a_23047_2741# vssd1 vssd1 sky130_fd_pr__nfet_01v8 ad=0.169 pd=1.82 as=0.08775 ps=0.92 w=0.65 l=0.15
X165 a_12429_4943# a_11895_4949# a_12334_4943# vccd1 sky130_fd_pr__pfet_01v8_hvt ad=0.07665 pd=0.785 as=0.06825 ps=0.745 w=0.42 l=0.15
X166 vssd1 input3.X a_5404_8323# vssd1 sky130_fd_pr__nfet_01v8 ad=0.10025 pd=0.985 as=0.0567 ps=0.69 w=0.42 l=0.15
X167 vccd1 _0958_.B a_20267_10927# vccd1 sky130_fd_pr__pfet_01v8_hvt ad=0.142225 pd=1.335 as=0.06615 ps=0.735 w=0.42 l=0.15
X168 vssd1 a_26026_18655# a_25984_18543# vssd1 sky130_fd_pr__nfet_01v8 ad=0.12095 pd=1.085 as=0.0696 ps=0.765 w=0.42 l=0.15
X169 vssd1 a_16175_1898# _1957_.D vssd1 sky130_fd_pr__nfet_01v8 ad=0.0754 pd=0.81 as=0.1352 ps=1.56 w=0.52 l=0.15
X170 a_26597_23983# a_26431_23983# vssd1 vssd1 sky130_fd_pr__nfet_01v8 ad=0.1092 pd=1.36 as=0.0567 ps=0.69 w=0.42 l=0.15
X171 a_9949_22351# _1817_.D vccd1 vccd1 sky130_fd_pr__pfet_01v8_hvt ad=0.05775 pd=0.695 as=0.1092 ps=1.36 w=0.42 l=0.15
X172 vssd1 clkbuf_0_net57.X a_2686_26703# vssd1 sky130_fd_pr__nfet_01v8 ad=0.0588 pd=0.7 as=0.0588 ps=0.7 w=0.42 l=0.15
X173 vccd1 _1242_.B1 a_5061_23439# vccd1 sky130_fd_pr__pfet_01v8_hvt ad=0.165 pd=1.33 as=0.135 ps=1.27 w=1 l=0.15
X174 vssd1 _1075_.C a_18121_8751# vssd1 sky130_fd_pr__nfet_01v8 ad=0.13165 pd=1.14 as=0.0441 ps=0.63 w=0.42 l=0.15
X175 a_10839_20884# _1443_.A vssd1 vssd1 sky130_fd_pr__nfet_01v8 ad=0.1352 pd=1.56 as=0.0754 ps=0.81 w=0.52 l=0.15
X176 vssd1 _0932_.A a_5455_14735# vssd1 sky130_fd_pr__nfet_01v8 ad=0.06825 pd=0.745 as=0.1113 ps=1.37 w=0.42 l=0.15
X177 vssd1 a_23266_21919# a_23224_21807# vssd1 sky130_fd_pr__nfet_01v8 ad=0.12095 pd=1.085 as=0.0696 ps=0.765 w=0.42 l=0.15
X178 vccd1 a_9779_19087# _1860_.CLK vccd1 sky130_fd_pr__pfet_01v8_hvt ad=0.26 pd=2.52 as=0.135 ps=1.27 w=1 l=0.15
X179 a_12689_6721# _1065_.X vssd1 vssd1 sky130_fd_pr__nfet_01v8 ad=0.18525 pd=1.22 as=0.117 ps=1.01 w=0.65 l=0.15
X181 _1764_.B a_1766_26159# vssd1 vssd1 sky130_fd_pr__nfet_01v8 ad=0.0588 pd=0.7 as=0.0588 ps=0.7 w=0.42 l=0.15
X182 vssd1 _0922_.Y a_8480_21807# vssd1 sky130_fd_pr__nfet_01v8 ad=0.17225 pd=1.83 as=0.091 ps=0.93 w=0.65 l=0.15
X183 _0983_.X a_10147_26409# vssd1 vssd1 sky130_fd_pr__nfet_01v8 ad=0.169 pd=1.82 as=0.10075 ps=0.96 w=0.65 l=0.15
X184 vccd1 _0964_.A a_12907_18543# vccd1 sky130_fd_pr__pfet_01v8_hvt ad=0.0567 pd=0.69 as=0.1092 ps=1.36 w=0.42 l=0.15
X186 vssd1 _1154_.A1 a_23757_9839# vssd1 sky130_fd_pr__nfet_01v8 ad=0.1013 pd=0.99 as=0.0504 ps=0.66 w=0.42 l=0.15
X189 _1095_.C1 a_17967_12672# vccd1 vccd1 sky130_fd_pr__pfet_01v8_hvt ad=0.26 pd=2.52 as=0.142225 ps=1.335 w=1 l=0.15
X190 vssd1 _1855_.CLK a_10699_31599# vssd1 sky130_fd_pr__nfet_01v8 ad=0.0567 pd=0.69 as=0.1092 ps=1.36 w=0.42 l=0.15
X191 a_6326_25071# _1242_.A2 a_6236_25071# vssd1 sky130_fd_pr__nfet_01v8 ad=0.14625 pd=1.1 as=0.0975 ps=0.95 w=0.65 l=0.15
X192 a_2382_3829# a_2214_3855# vccd1 vccd1 sky130_fd_pr__pfet_01v8_hvt ad=0.1095 pd=1.075 as=0.178875 ps=1.26 w=0.75 l=0.15
X194 temp1.capload\[6\].cap.B a_15750_28335# vccd1 vccd1 sky130_fd_pr__pfet_01v8_hvt ad=0.14 pd=1.28 as=0.14 ps=1.28 w=1 l=0.15
X195 vssd1 a_27663_21085# a_27831_20987# vssd1 sky130_fd_pr__nfet_01v8 ad=0.08775 pd=0.92 as=0.169 ps=1.82 w=0.65 l=0.15
X196 _1234_.A2 a_5455_17455# vccd1 vccd1 sky130_fd_pr__pfet_01v8_hvt ad=0.135 pd=1.27 as=0.149 ps=1.325 w=1 l=0.15
X198 a_18409_2773# a_18243_2773# vssd1 vssd1 sky130_fd_pr__nfet_01v8 ad=0.1092 pd=1.36 as=0.0567 ps=0.69 w=0.42 l=0.15
X200 vccd1 a_13054_25589# a_12981_25615# vccd1 sky130_fd_pr__pfet_01v8_hvt ad=0.178875 pd=1.26 as=0.07665 ps=0.785 w=0.42 l=0.15
X201 _1406_.A a_18836_23555# vssd1 vssd1 sky130_fd_pr__nfet_01v8 ad=0.169 pd=1.82 as=0.10025 ps=0.985 w=0.65 l=0.15
X202 a_15151_16733# a_14453_16367# a_14894_16479# vssd1 sky130_fd_pr__nfet_01v8 ad=0.0684 pd=0.74 as=0.0989 ps=0.995 w=0.36 l=0.15
X203 vssd1 _1448_.A a_12815_19631# vssd1 sky130_fd_pr__nfet_01v8 ad=0.097 pd=0.975 as=0.1092 ps=1.36 w=0.42 l=0.15
X204 a_25401_12565# a_25235_12565# vccd1 vccd1 sky130_fd_pr__pfet_01v8_hvt ad=0.1664 pd=1.8 as=0.0864 ps=0.91 w=0.64 l=0.15
X205 a_17217_27791# _1899_.D vccd1 vccd1 sky130_fd_pr__pfet_01v8_hvt ad=0.05775 pd=0.695 as=0.1092 ps=1.36 w=0.42 l=0.15
X206 vccd1 _1133_.C a_17415_20719# vccd1 sky130_fd_pr__pfet_01v8_hvt ad=0.142225 pd=1.335 as=0.06615 ps=0.735 w=0.42 l=0.15
X208 vccd1 _1459_.A a_18151_6031# vccd1 sky130_fd_pr__pfet_01v8_hvt ad=0.1625 pd=1.325 as=0.265 ps=2.53 w=1 l=0.15
X209 a_11711_14848# _1905_.Q vccd1 vccd1 sky130_fd_pr__pfet_01v8_hvt ad=0.06615 pd=0.735 as=0.0567 ps=0.69 w=0.42 l=0.15
X211 _1744_.X a_19803_7119# vccd1 vccd1 sky130_fd_pr__pfet_01v8_hvt ad=0.26 pd=2.52 as=0.2279 ps=1.74 w=1 l=0.15
X212 vssd1 a_12743_8181# a_12701_8585# vssd1 sky130_fd_pr__nfet_01v8 ad=0.1092 pd=1.36 as=0.066 ps=0.745 w=0.42 l=0.15
X213 vccd1 _1156_.Y a_7834_10089# vccd1 sky130_fd_pr__pfet_01v8_hvt ad=0.26 pd=2.52 as=0.1525 ps=1.305 w=1 l=0.15
X214 vssd1 _0966_.A2 a_15277_26159# vssd1 sky130_fd_pr__nfet_01v8 ad=0.102375 pd=0.965 as=0.10725 ps=0.98 w=0.65 l=0.15
X215 a_2603_21807# _0925_.Y a_2781_21807# vssd1 sky130_fd_pr__nfet_01v8 ad=0.169 pd=1.82 as=0.06825 ps=0.86 w=0.65 l=0.15
X216 vccd1 a_21235_31274# _1487_.X vccd1 sky130_fd_pr__pfet_01v8_hvt ad=0.11455 pd=1.08 as=0.2054 ps=2.1 w=0.79 l=0.15
X217 temp1.dcdc.A a_5354_28335# vccd1 vccd1 sky130_fd_pr__pfet_01v8_hvt ad=0.14 pd=1.28 as=0.14 ps=1.28 w=1 l=0.15
X219 vccd1 _1924_.CLK a_26983_3311# vccd1 sky130_fd_pr__pfet_01v8_hvt ad=0.0864 pd=0.91 as=0.1664 ps=1.8 w=0.64 l=0.15
X220 a_27847_10205# a_26983_9839# a_27590_9951# vccd1 sky130_fd_pr__pfet_01v8_hvt ad=0.0567 pd=0.69 as=0.1095 ps=1.075 w=0.42 l=0.15
X222 a_12189_24825# _1287_.A vccd1 vccd1 sky130_fd_pr__pfet_01v8_hvt ad=0.1176 pd=1.4 as=0.0693 ps=0.75 w=0.42 l=0.15
X224 vccd1 _2003_.Q a_7571_20175# vccd1 sky130_fd_pr__pfet_01v8_hvt ad=0.1625 pd=1.325 as=0.265 ps=2.53 w=1 l=0.15
X226 a_8822_2741# a_8654_2767# vccd1 vccd1 sky130_fd_pr__pfet_01v8_hvt ad=0.1095 pd=1.075 as=0.178875 ps=1.26 w=0.75 l=0.15
X227 a_3401_12925# _0917_.A a_3329_12925# vssd1 sky130_fd_pr__nfet_01v8 ad=0.0441 pd=0.63 as=0.0441 ps=0.63 w=0.42 l=0.15
X228 vccd1 a_17381_14337# _1034_.D vccd1 sky130_fd_pr__pfet_01v8_hvt ad=0.265 pd=2.53 as=0.29 ps=2.58 w=1 l=0.15
X229 a_19395_5162# _1667_.X vssd1 vssd1 sky130_fd_pr__nfet_01v8 ad=0.1352 pd=1.56 as=0.0754 ps=0.81 w=0.52 l=0.15
X233 a_24945_6575# _1605_.X vccd1 vccd1 sky130_fd_pr__pfet_01v8_hvt ad=0.05775 pd=0.695 as=0.1092 ps=1.36 w=0.42 l=0.15
X234 vccd1 a_21695_19796# _1393_.X vccd1 sky130_fd_pr__pfet_01v8_hvt ad=0.11455 pd=1.08 as=0.2054 ps=2.1 w=0.79 l=0.15
X235 a_9301_7125# a_9135_7125# vccd1 vccd1 sky130_fd_pr__pfet_01v8_hvt ad=0.1664 pd=1.8 as=0.0864 ps=0.91 w=0.64 l=0.15
X236 a_27422_26525# a_26983_26159# a_27337_26159# vssd1 sky130_fd_pr__nfet_01v8 ad=0.0621 pd=0.705 as=0.0813 ps=0.83 w=0.36 l=0.15
X238 a_2873_18319# _1280_.Y vssd1 vssd1 sky130_fd_pr__nfet_01v8 ad=0.06825 pd=0.86 as=0.10725 ps=0.98 w=0.65 l=0.15
X239 vssd1 a_26394_4511# a_26352_4399# vssd1 sky130_fd_pr__nfet_01v8 ad=0.12095 pd=1.085 as=0.0696 ps=0.765 w=0.42 l=0.15
X240 vssd1 _1059_.B a_17456_7913# vssd1 sky130_fd_pr__nfet_01v8 ad=0.10025 pd=0.985 as=0.0567 ps=0.69 w=0.42 l=0.15
X241 _1810_.A2 a_6600_7913# vssd1 vssd1 sky130_fd_pr__nfet_01v8 ad=0.169 pd=1.82 as=0.10025 ps=0.985 w=0.65 l=0.15
X242 vccd1 _1353_.A a_25869_28879# vccd1 sky130_fd_pr__pfet_01v8_hvt ad=0.26 pd=2.52 as=0.105 ps=1.21 w=1 l=0.15
X243 a_17577_13103# _1528_.A a_17139_13103# vssd1 sky130_fd_pr__nfet_01v8 ad=0.10725 pd=0.98 as=0.169 ps=1.82 w=0.65 l=0.15
X244 _1075_.C a_10938_16341# vccd1 vccd1 sky130_fd_pr__pfet_01v8_hvt ad=0.135 pd=1.27 as=0.14075 ps=1.325 w=1 l=0.15
X245 a_15207_14557# _1374_.A_N vssd1 vssd1 sky130_fd_pr__nfet_01v8 ad=0.1092 pd=1.36 as=0.1092 ps=1.36 w=0.42 l=0.15
X246 vssd1 _1821_.Q a_15616_18115# vssd1 sky130_fd_pr__nfet_01v8 ad=0.10025 pd=0.985 as=0.0567 ps=0.69 w=0.42 l=0.15
X247 vccd1 a_17359_31965# a_17527_31867# vccd1 sky130_fd_pr__pfet_01v8_hvt ad=0.135 pd=1.27 as=0.27 ps=2.54 w=1 l=0.15
X248 vssd1 _1156_.D _1156_.Y vssd1 sky130_fd_pr__nfet_01v8 ad=0.169 pd=1.82 as=0.08775 ps=0.92 w=0.65 l=0.15
X249 a_11889_6351# _1145_.B2 vssd1 vssd1 sky130_fd_pr__nfet_01v8 ad=0.06825 pd=0.86 as=0.10725 ps=0.98 w=0.65 l=0.15
X250 vccd1 _1080_.B a_18550_5737# vccd1 sky130_fd_pr__pfet_01v8_hvt ad=0.14575 pd=1.335 as=0.0441 ps=0.63 w=0.42 l=0.15
X252 a_5888_31055# a_5639_31055# vccd1 vccd1 sky130_fd_pr__pfet_01v8_hvt ad=0.1825 pd=1.365 as=0.32075 ps=1.685 w=1 l=0.15
X253 a_6824_13647# _1012_.Y vccd1 vccd1 sky130_fd_pr__pfet_01v8_hvt ad=0.1175 pd=1.235 as=0.3725 ps=1.745 w=1 l=0.15
X254 vssd1 a_27215_4074# _1367_.X vssd1 sky130_fd_pr__nfet_01v8 ad=0.0754 pd=0.81 as=0.1352 ps=1.56 w=0.52 l=0.15
X255 a_24294_25615# a_23855_25621# a_24209_25615# vssd1 sky130_fd_pr__nfet_01v8 ad=0.0621 pd=0.705 as=0.0813 ps=0.83 w=0.36 l=0.15
X256 a_4150_21263# _1310_.Y a_3759_21237# vccd1 sky130_fd_pr__pfet_01v8_hvt ad=0.16 pd=1.32 as=0.14 ps=1.28 w=1 l=0.15
X258 a_25340_4233# a_24941_3861# a_25214_3855# vssd1 sky130_fd_pr__nfet_01v8 ad=0.0696 pd=0.765 as=0.0621 ps=0.705 w=0.36 l=0.15
X261 vccd1 _1874_.Q a_17170_26819# vccd1 sky130_fd_pr__pfet_01v8_hvt ad=0.14575 pd=1.335 as=0.0441 ps=0.63 w=0.42 l=0.15
X262 a_27337_19631# _1967_.D vssd1 vssd1 sky130_fd_pr__nfet_01v8 ad=0.0813 pd=0.83 as=0.1092 ps=1.36 w=0.42 l=0.15
X263 vccd1 _1139_.C a_11711_14848# vccd1 sky130_fd_pr__pfet_01v8_hvt ad=0.142225 pd=1.335 as=0.06615 ps=0.735 w=0.42 l=0.15
X264 a_2547_13469# a_1683_13103# a_2290_13215# vccd1 sky130_fd_pr__pfet_01v8_hvt ad=0.0567 pd=0.69 as=0.1095 ps=1.075 w=0.42 l=0.15
X265 vccd1 _1850_.CLK a_12171_10389# vccd1 sky130_fd_pr__pfet_01v8_hvt ad=0.0864 pd=0.91 as=0.1664 ps=1.8 w=0.64 l=0.15
X266 a_4035_30485# _1329_.X a_4262_30833# vccd1 sky130_fd_pr__pfet_01v8_hvt ad=0.1312 pd=1.05 as=0.2288 ps=1.355 w=0.64 l=0.15
X267 _1338_.A a_1827_32117# vssd1 vssd1 sky130_fd_pr__nfet_01v8 ad=0.08775 pd=0.92 as=0.169 ps=1.82 w=0.65 l=0.15
X268 a_12425_2223# a_11435_2223# a_12299_2589# vssd1 sky130_fd_pr__nfet_01v8 ad=0.066 pd=0.745 as=0.0684 ps=0.74 w=0.36 l=0.15
X269 a_15795_32143# a_14931_32149# a_15538_32117# vccd1 sky130_fd_pr__pfet_01v8_hvt ad=0.0567 pd=0.69 as=0.1095 ps=1.075 w=0.42 l=0.15
X270 vssd1 a_2103_31573# _1329_.X vssd1 sky130_fd_pr__nfet_01v8 ad=0.097 pd=0.975 as=0.08775 ps=0.92 w=0.65 l=0.15
X271 a_14287_28879# _1474_.A_N vssd1 vssd1 sky130_fd_pr__nfet_01v8 ad=0.1092 pd=1.36 as=0.1092 ps=1.36 w=0.42 l=0.15
X272 a_16192_27791# a_15943_27791# vccd1 vccd1 sky130_fd_pr__pfet_01v8_hvt ad=0.1825 pd=1.365 as=0.32075 ps=1.685 w=1 l=0.15
X273 _1394_.A a_23323_18811# vccd1 vccd1 sky130_fd_pr__pfet_01v8_hvt ad=0.26 pd=2.52 as=0.135 ps=1.27 w=1 l=0.15
X274 temp1.dac.parallel_cells\[3\].vdac_batch.einvp_batch\[1\].pupd.Z temp1.dac.parallel_cells\[4\].vdac_batch.einvp_batch\[8\].pupd.A a_4324_31849# vccd1 sky130_fd_pr__pfet_01v8_hvt ad=0.27 pd=2.54 as=0.1825 ps=1.365 w=1 l=0.15
X275 a_2686_10383# clkbuf_1_1__f_io_in[0].A vccd1 vccd1 sky130_fd_pr__pfet_01v8_hvt ad=0.14 pd=1.28 as=0.265 ps=2.53 w=1 l=0.15
X276 a_21407_23261# a_20543_22895# a_21150_23007# vccd1 sky130_fd_pr__pfet_01v8_hvt ad=0.0567 pd=0.69 as=0.1095 ps=1.075 w=0.42 l=0.15
X277 a_14802_7093# a_14634_7119# vssd1 vssd1 sky130_fd_pr__nfet_01v8 ad=0.0989 pd=0.995 as=0.12095 ps=1.085 w=0.64 l=0.15
X278 a_2382_3829# a_2214_3855# vssd1 vssd1 sky130_fd_pr__nfet_01v8 ad=0.0989 pd=0.995 as=0.12095 ps=1.085 w=0.64 l=0.15
X279 vccd1 a_22587_31867# a_22503_31965# vccd1 sky130_fd_pr__pfet_01v8_hvt ad=0.1113 pd=1.37 as=0.0882 ps=0.84 w=0.42 l=0.15
X281 _1289_.A2 _1249_.A2 vssd1 vssd1 sky130_fd_pr__nfet_01v8 ad=0.091 pd=0.93 as=0.17225 ps=1.83 w=0.65 l=0.15
X282 vssd1 _1719_.B a_22285_10749# vssd1 sky130_fd_pr__nfet_01v8 ad=0.1013 pd=0.99 as=0.0504 ps=0.66 w=0.42 l=0.15
X284 vssd1 a_2807_7093# a_2765_7497# vssd1 sky130_fd_pr__nfet_01v8 ad=0.1092 pd=1.36 as=0.066 ps=0.745 w=0.42 l=0.15
X285 vccd1 a_13035_10383# a_13203_10357# vccd1 sky130_fd_pr__pfet_01v8_hvt ad=0.135 pd=1.27 as=0.27 ps=2.54 w=1 l=0.15
X286 a_27755_11293# a_27057_10927# a_27498_11039# vssd1 sky130_fd_pr__nfet_01v8 ad=0.0684 pd=0.74 as=0.0989 ps=0.995 w=0.36 l=0.15
X287 a_14993_25071# _1897_.Q a_14921_25071# vssd1 sky130_fd_pr__nfet_01v8 ad=0.0441 pd=0.63 as=0.0441 ps=0.63 w=0.42 l=0.15
X289 vssd1 a_25455_1501# a_25623_1403# vssd1 sky130_fd_pr__nfet_01v8 ad=0.08775 pd=0.92 as=0.169 ps=1.82 w=0.65 l=0.15
X291 a_13275_4765# _1639_.X vssd1 vssd1 sky130_fd_pr__nfet_01v8 ad=0.1092 pd=1.36 as=0.1092 ps=1.36 w=0.42 l=0.15
X292 a_4587_24501# _1261_.A1 a_4814_24527# vccd1 sky130_fd_pr__pfet_01v8_hvt ad=0.1312 pd=1.05 as=0.2288 ps=1.355 w=0.64 l=0.15
X293 a_19497_18689# _1137_.X vssd1 vssd1 sky130_fd_pr__nfet_01v8 ad=0.10075 pd=0.96 as=0.274625 ps=1.495 w=0.65 l=0.15
X294 vccd1 _1489_.A_N a_19899_19087# vccd1 sky130_fd_pr__pfet_01v8_hvt ad=0.0714 pd=0.76 as=0.1092 ps=1.36 w=0.42 l=0.15
X295 a_27479_16733# a_26781_16367# a_27222_16479# vssd1 sky130_fd_pr__nfet_01v8 ad=0.0684 pd=0.74 as=0.0989 ps=0.995 w=0.36 l=0.15
X296 vssd1 a_21150_7775# a_21108_7663# vssd1 sky130_fd_pr__nfet_01v8 ad=0.12095 pd=1.085 as=0.0696 ps=0.765 w=0.42 l=0.15
X298 a_15465_32143# a_14931_32149# a_15370_32143# vccd1 sky130_fd_pr__pfet_01v8_hvt ad=0.07665 pd=0.785 as=0.06825 ps=0.745 w=0.42 l=0.15
X300 a_21143_23658# _1406_.A vssd1 vssd1 sky130_fd_pr__nfet_01v8 ad=0.1352 pd=1.56 as=0.0754 ps=0.81 w=0.52 l=0.15